data_functionalizedCrystal
_audit_creation_method	'EQeq! by Chris Wilmer'
_symmetry_space_group_name_H-M	'P1'
_symmetry_Int_Tables_number	1
_symmetry_cell_setting	triclinic
loop_
_symmetry_equiv_pos_as_xyz
  x,y,z
_cell_length_a	17.8348
_cell_length_b	17.8348
_cell_length_c	17.8348
_cell_angle_alpha	90
_cell_angle_beta	90
_cell_angle_gamma	90
loop_
_atom_site_label
_atom_site_type_symbol
_atom_site_fract_x
_atom_site_fract_y
_atom_site_fract_z
_atom_site_charge
Zr	Zr	0.13785	0.51113	0.0118801	2.571
Zr	Zr	0.86215	0.48887	0.0118801	2.566
Zr	Zr	0.86215	0.51113	0.98812	2.505
Zr	Zr	0.13785	0.48887	0.98812	2.511
Zr	Zr	0.0118801	0.13785	0.51113	2.571
Zr	Zr	0.0118801	0.86215	0.48887	2.565
Zr	Zr	0.98812	0.86215	0.51113	2.504
Zr	Zr	0.98812	0.13785	0.48887	2.51
Zr	Zr	0.51113	0.0118801	0.13785	2.57
Zr	Zr	0.48887	0.0118801	0.86215	2.565
Zr	Zr	0.51113	0.98812	0.86215	2.504
Zr	Zr	0.48887	0.98812	0.13785	2.51
Zr	Zr	0.36215	0.98887	0.48812	2.516
Zr	Zr	0.63785	0.0111299	0.48812	2.574
Zr	Zr	0.63785	0.98887	0.51188	2.516
Zr	Zr	0.36215	0.0111299	0.51188	2.574
Zr	Zr	0.48812	0.36215	0.98887	2.516
Zr	Zr	0.48812	0.63785	0.0111299	2.574
Zr	Zr	0.51188	0.63785	0.98887	2.516
Zr	Zr	0.51188	0.36215	0.0111299	2.574
Zr	Zr	0.98887	0.48812	0.36215	2.516
Zr	Zr	0.0111299	0.48812	0.63785	2.574
Zr	Zr	0.98887	0.51188	0.63785	2.516
Zr	Zr	0.0111299	0.51188	0.36215	2.574
O 	O 	0.209	0.4085	0.00800009	-0.525
O 	O 	0.791	0.5915	0.00800009	-0.557
O 	O 	0.791	0.4085	0.992	-1.283
O 	O 	0.209	0.5915	0.992	-1.264
O 	O 	0.00800009	0.209	0.4085	-0.525
O 	O 	0.00800009	0.791	0.5915	-0.557
O 	O 	0.992	0.791	0.4085	-1.283
O 	O 	0.992	0.209	0.5915	-1.264
O 	O 	0.4085	0.00800009	0.209	-0.525
O 	O 	0.5915	0.00800009	0.791	-0.557
O 	O 	0.4085	0.992	0.791	-1.283
O 	O 	0.5915	0.992	0.209	-1.265
O 	O 	0.291	0.0914998	0.492	-0.817
O 	O 	0.709	0.9085	0.492	-0.855
O 	O 	0.709	0.0914998	0.508	-0.822
O 	O 	0.291	0.9085	0.508	-0.85
O 	O 	0.492	0.291	0.0914998	-0.817
O 	O 	0.492	0.709	0.9085	-0.855
O 	O 	0.508	0.709	0.0914998	-0.822
O 	O 	0.508	0.291	0.9085	-0.85
O 	O 	0.0914998	0.492	0.291	-0.817
O 	O 	0.9085	0.492	0.709	-0.855
O 	O 	0.0914998	0.508	0.709	-0.822
O 	O 	0.9085	0.508	0.291	-0.85
O 	O 	0.1904	0.6246	0.0246002	1.861
O 	O 	0.8096	0.3754	0.0246002	1.931
O 	O 	0.8096	0.6246	0.9754	1.396
O 	O 	0.1904	0.3754	0.9754	1.237
O 	O 	0.0246002	0.1904	0.6246	1.861
O 	O 	0.0246002	0.8096	0.3754	1.931
O 	O 	0.9754	0.8096	0.6246	1.396
O 	O 	0.9754	0.1904	0.3754	1.237
O 	O 	0.6246	0.0246002	0.1904	1.861
O 	O 	0.3754	0.0246002	0.8096	1.931
O 	O 	0.6246	0.9754	0.8096	1.396
O 	O 	0.3754	0.9754	0.1904	1.237
O 	O 	0.3096	0.8754	0.4754	0.898
O 	O 	0.6904	0.1246	0.4754	0.871
O 	O 	0.6904	0.8754	0.5246	0.914
O 	O 	0.3096	0.1246	0.5246	0.861
O 	O 	0.4754	0.3096	0.8754	0.898
O 	O 	0.4754	0.6904	0.1246	0.872
O 	O 	0.5246	0.6904	0.8754	0.914
O 	O 	0.5246	0.3096	0.1246	0.861
O 	O 	0.8754	0.4754	0.3096	0.898
O 	O 	0.1246	0.4754	0.6904	0.872
O 	O 	0.8754	0.5246	0.6904	0.914
O 	O 	0.1246	0.5246	0.3096	0.861
O 	O 	0.1896	0.5073	0.1263	-0.138
O 	O 	0.8104	0.4927	0.1263	-0.156
O 	O 	0.8104	0.5073	0.8737	-0.2
O 	O 	0.1896	0.4927	0.8737	-0.178
O 	O 	0.1263	0.1896	0.5073	-0.138
O 	O 	0.1263	0.8104	0.4927	-0.156
O 	O 	0.8737	0.8104	0.5073	-0.2
O 	O 	0.8737	0.1896	0.4927	-0.178
O 	O 	0.5073	0.1263	0.1896	-0.138
O 	O 	0.4927	0.1263	0.8104	-0.156
O 	O 	0.5073	0.8737	0.8104	-0.2
O 	O 	0.4927	0.8737	0.1896	-0.178
O 	O 	0.3104	0.9927	0.3737	-0.288
O 	O 	0.6896	0.00729977	0.3737	0.325
O 	O 	0.6896	0.9927	0.6263	-0.272
O 	O 	0.3104	0.00729977	0.6263	0.34
O 	O 	0.3737	0.3104	0.9927	-0.287
O 	O 	0.3737	0.6896	0.00729977	0.325
O 	O 	0.6263	0.6896	0.9927	-0.272
O 	O 	0.6263	0.3104	0.00729977	0.34
O 	O 	0.9927	0.3737	0.3104	-0.287
O 	O 	0.00729977	0.3737	0.6896	0.325
O 	O 	0.9927	0.6263	0.6896	-0.272
O 	O 	0.00729977	0.6263	0.3104	0.34
O 	O 	0.2088	0.5239	0.9094	-0.712
O 	O 	0.7912	0.4761	0.9094	-0.713
O 	O 	0.7912	0.5239	0.0905998	-0.702
O 	O 	0.2088	0.4761	0.0905998	-0.702
O 	O 	0.9094	0.2088	0.5239	-0.712
O 	O 	0.9094	0.7912	0.4761	-0.713
O 	O 	0.0905998	0.7912	0.5239	-0.702
O 	O 	0.0905998	0.2088	0.4761	-0.702
O 	O 	0.5239	0.9094	0.2088	-0.712
O 	O 	0.4761	0.9094	0.7912	-0.713
O 	O 	0.5239	0.0905998	0.7912	-0.702
O 	O 	0.4761	0.0905998	0.2088	-0.702
O 	O 	0.2912	0.9761	0.5906	-1.102
O 	O 	0.7088	0.0238999	0.5906	-0.51
O 	O 	0.7088	0.9761	0.4094	-1.1
O 	O 	0.2912	0.0238999	0.4094	-0.491
O 	O 	0.5906	0.2912	0.9761	-1.102
O 	O 	0.5906	0.7088	0.0238999	-0.51
O 	O 	0.4094	0.7088	0.9761	-1.1
O 	O 	0.4094	0.2912	0.0238999	-0.491
O 	O 	0.9761	0.5906	0.2912	-1.102
O 	O 	0.0238999	0.5906	0.7088	-0.51
O 	O 	0.9761	0.4094	0.7088	-1.1
O 	O 	0.0238999	0.4094	0.2912	-0.491
C 	C 	0.1604	0.6891	0.0240003	1.882
C 	C 	0.8396	0.3109	0.0240003	1.906
C 	C 	0.8396	0.6891	0.976	2.636
C 	C 	0.1604	0.3109	0.976	2.56
C 	C 	0.0239997	0.1604	0.6891	1.882
C 	C 	0.0239997	0.8396	0.3109	1.906
C 	C 	0.976	0.8396	0.6891	2.636
C 	C 	0.976	0.1604	0.3109	2.56
C 	C 	0.6891	0.0240003	0.1604	1.882
C 	C 	0.3109	0.0239997	0.8396	1.906
C 	C 	0.6891	0.976	0.8396	2.636
C 	C 	0.3109	0.976	0.1604	2.56
C 	C 	0.3396	0.8109	0.476	1.332
C 	C 	0.6604	0.1891	0.476	1.276
C 	C 	0.6604	0.8109	0.524	1.354
C 	C 	0.3396	0.1891	0.524	1.266
C 	C 	0.476	0.3396	0.8109	1.332
C 	C 	0.476	0.6604	0.1891	1.276
C 	C 	0.524	0.6604	0.8109	1.354
C 	C 	0.524	0.3396	0.1891	1.266
C 	C 	0.8109	0.476	0.3396	1.332
C 	C 	0.1891	0.476	0.6604	1.276
C 	C 	0.8109	0.524	0.6604	1.354
C 	C 	0.1891	0.524	0.3396	1.266
C 	C 	0.2142	0.7555	0.0243002	-1.575
C 	C 	0.7858	0.2445	0.0243002	-1.662
C 	C 	0.7858	0.7555	0.9757	-3.799
C 	C 	0.2142	0.2445	0.9757	-3.643
C 	C 	0.0242997	0.2142	0.7555	-1.575
C 	C 	0.0242997	0.7858	0.2445	-1.662
C 	C 	0.9757	0.7858	0.7555	-3.799
C 	C 	0.9757	0.2142	0.2445	-3.643
C 	C 	0.7555	0.0243002	0.2142	-1.575
C 	C 	0.2445	0.0243002	0.7858	-1.662
C 	C 	0.7555	0.9757	0.7858	-3.799
C 	C 	0.2445	0.9757	0.2142	-3.643
C 	C 	0.2858	0.7445	0.4757	-1.624
C 	C 	0.7142	0.2555	0.4757	-1.546
C 	C 	0.7142	0.7445	0.5243	-1.652
C 	C 	0.2858	0.2555	0.5243	-1.542
C 	C 	0.4757	0.2858	0.7445	-1.624
C 	C 	0.4757	0.7142	0.2555	-1.546
C 	C 	0.5243	0.7142	0.7445	-1.652
C 	C 	0.5243	0.2858	0.2555	-1.542
C 	C 	0.7445	0.4757	0.2858	-1.624
C 	C 	0.2555	0.4757	0.7142	-1.546
C 	C 	0.7445	0.5243	0.7142	-1.652
C 	C 	0.2555	0.5243	0.2858	-1.542
H 	H 	0.1955	0.8042	0.0244	0.515
H 	H 	0.8045	0.1958	0.0244	0.55
H 	H 	0.8045	0.8042	0.9756	1.16
H 	H 	0.1955	0.1958	0.9756	1.187
H 	H 	0.0244	0.1955	0.8042	0.515
H 	H 	0.0244	0.8045	0.1958	0.55
H 	H 	0.9756	0.8045	0.8042	1.16
H 	H 	0.9756	0.1955	0.1958	1.187
H 	H 	0.8042	0.0244	0.1955	0.515
H 	H 	0.1958	0.0244	0.8045	0.55
H 	H 	0.8042	0.9756	0.8045	1.16
H 	H 	0.1958	0.9756	0.1955	1.187
H 	H 	0.3045	0.6958	0.4756	0.526
H 	H 	0.6955	0.3042	0.4756	0.496
H 	H 	0.6955	0.6958	0.5244	0.528
H 	H 	0.3045	0.3042	0.5244	0.5
H 	H 	0.4756	0.3045	0.6958	0.526
H 	H 	0.4756	0.6955	0.3042	0.496
H 	H 	0.5244	0.6955	0.6958	0.528
H 	H 	0.5244	0.3045	0.3042	0.501
H 	H 	0.6958	0.4756	0.3045	0.526
H 	H 	0.3042	0.4756	0.6955	0.496
H 	H 	0.6958	0.5244	0.6955	0.528
H 	H 	0.3042	0.5244	0.3045	0.5
C 	C 	0.1906	0.3398	-0	-3.892
C 	C 	0.8094	0.6602	-0	-4.189
C 	C 	0.8094	0.3398	-0	-3.438
C 	C 	0.1906	0.6602	-0	-3.302
C 	C 	5.7239e-33	0.1906	0.3398	-3.893
C 	C 	2.47535e-33	0.8094	0.6602	-4.189
C 	C 	5.7239e-33	0.8094	0.3398	-3.438
C 	C 	2.47535e-33	0.1906	0.6602	-3.302
C 	C 	0.3398	0	0.1906	-3.893
C 	C 	0.6602	0	0.8094	-4.189
C 	C 	0.3398	0	0.8094	-3.438
C 	C 	0.6602	0	0.1906	-3.302
C 	C 	0.3094	0.1602	0.5	-2.121
C 	C 	0.6906	0.8398	0.5	-2.279
C 	C 	0.6906	0.1602	0.5	-2.14
C 	C 	0.3094	0.8398	0.5	-2.239
C 	C 	0.5	0.3094	0.1602	-2.121
C 	C 	0.5	0.6906	0.8398	-2.279
C 	C 	0.5	0.6906	0.1602	-2.14
C 	C 	0.5	0.3094	0.8398	-2.239
C 	C 	0.1602	0.5	0.3094	-2.121
C 	C 	0.8398	0.5	0.6906	-2.279
C 	C 	0.1602	0.5	0.6906	-2.14
C 	C 	0.8398	0.5	0.3094	-2.239
C 	C 	0.2567	0.2865	9.98049e-05	3.834
C 	C 	0.7433	0.7135	9.98049e-05	4.007
C 	C 	0.7433	0.2865	0.9999	1.892
C 	C 	0.2567	0.7135	0.9999	1.778
C 	C 	9.98049e-05	0.2567	0.2865	3.834
C 	C 	9.98049e-05	0.7433	0.7135	4.007
C 	C 	0.9999	0.7433	0.2865	1.892
C 	C 	0.9999	0.2567	0.7135	1.777
C 	C 	0.2865	9.98049e-05	0.2567	3.834
C 	C 	0.7135	9.98049e-05	0.7433	4.007
C 	C 	0.2865	0.9999	0.7433	1.892
C 	C 	0.7135	0.9999	0.2567	1.778
C 	C 	0.2433	0.2135	0.4999	1.623
C 	C 	0.7567	0.7865	0.4999	1.721
C 	C 	0.7567	0.2135	0.5001	1.613
C 	C 	0.2433	0.7865	0.5001	1.707
C 	C 	0.4999	0.2433	0.2135	1.623
C 	C 	0.4999	0.7567	0.7865	1.721
C 	C 	0.5001	0.7567	0.2135	1.613
C 	C 	0.5001	0.2433	0.7865	1.707
C 	C 	0.2135	0.4999	0.2433	1.623
C 	C 	0.7865	0.4999	0.7567	1.721
C 	C 	0.2135	0.5001	0.7567	1.613
C 	C 	0.7865	0.5001	0.2433	1.707
H 	H 	0.3056	0.3046	9.98049e-05	-1.255
H 	H 	0.6944	0.6954	9.98049e-05	-1.331
H 	H 	0.6944	0.3046	0.9999	-0.804
H 	H 	0.3056	0.6954	0.9999	-0.761
H 	H 	9.98049e-05	0.3056	0.3046	-1.255
H 	H 	9.98049e-05	0.6944	0.6954	-1.331
H 	H 	0.9999	0.6944	0.3046	-0.804
H 	H 	0.9999	0.3056	0.6954	-0.761
H 	H 	0.3046	9.98049e-05	0.3056	-1.255
H 	H 	0.6954	9.98049e-05	0.6944	-1.331
H 	H 	0.3046	0.9999	0.6944	-0.804
H 	H 	0.6954	0.9999	0.3056	-0.761
H 	H 	0.1944	0.1954	0.4999	-0.527
H 	H 	0.8056	0.8046	0.4999	-0.574
H 	H 	0.8056	0.1954	0.5001	-0.524
H 	H 	0.1944	0.8046	0.5001	-0.568
H 	H 	0.4999	0.1944	0.1954	-0.527
H 	H 	0.4999	0.8056	0.8046	-0.574
H 	H 	0.5001	0.8056	0.1954	-0.524
H 	H 	0.5001	0.1944	0.8046	-0.568
H 	H 	0.1954	0.4999	0.1944	-0.527
H 	H 	0.8046	0.4999	0.8056	-0.574
H 	H 	0.1954	0.5001	0.8056	-0.524
H 	H 	0.8046	0.5001	0.1944	-0.568
O 	O 	0.0764999	0.5917	0.9353	0.17
O 	O 	0.9235	0.4083	0.9353	0.197
O 	O 	0.9235	0.5917	0.0646999	0.099
O 	O 	0.0764999	0.4083	0.0646999	0.067
O 	O 	0.9353	0.0764999	0.5917	0.17
O 	O 	0.9353	0.9235	0.4083	0.197
O 	O 	0.0646999	0.9235	0.5917	0.099
O 	O 	0.0646999	0.0764999	0.4083	0.067
O 	O 	0.5917	0.9353	0.0764999	0.17
O 	O 	0.4083	0.9353	0.9235	0.197
O 	O 	0.5917	0.0646999	0.9235	0.099
O 	O 	0.4083	0.0646999	0.0764999	0.067
O 	O 	0.4235	0.9083	0.5647	0.084
O 	O 	0.5765	0.0916999	0.5647	0.13
O 	O 	0.5765	0.9083	0.4353	0.085
O 	O 	0.4235	0.0916999	0.4353	0.131
O 	O 	0.5647	0.4235	0.9083	0.084
O 	O 	0.5647	0.5765	0.0916999	0.13
O 	O 	0.4353	0.5765	0.9083	0.085
O 	O 	0.4353	0.4235	0.0916999	0.131
O 	O 	0.9083	0.5647	0.4235	0.084
O 	O 	0.0916999	0.5647	0.5765	0.13
O 	O 	0.9083	0.4353	0.5765	0.085
O 	O 	0.0916999	0.4353	0.4235	0.131
O 	O 	0.0595998	0.4404	0.0595998	-0.514
O 	O 	0.9404	0.5596	0.0595998	-0.604
O 	O 	0.9404	0.4404	0.9404	-0.742
O 	O 	0.0595998	0.5596	0.9404	-0.657
O 	O 	0.0595998	0.0595998	0.4404	-0.514
O 	O 	0.0595998	0.9404	0.5596	-0.604
O 	O 	0.9404	0.9404	0.4404	-0.742
O 	O 	0.9404	0.0595998	0.5596	-0.657
O 	O 	0.4404	0.0595998	0.0595998	-0.514
O 	O 	0.5596	0.0595998	0.9404	-0.604
O 	O 	0.4404	0.9404	0.9404	-0.742
O 	O 	0.5596	0.9404	0.0595998	-0.657
O 	O 	0.4404	0.0595998	0.4404	-0.579
O 	O 	0.5596	0.9404	0.4404	-0.612
O 	O 	0.5596	0.0595998	0.5596	-0.578
O 	O 	0.4404	0.9404	0.5596	-0.611
O 	O 	0.4404	0.4404	0.0595998	-0.579
O 	O 	0.4404	0.5596	0.9404	-0.612
O 	O 	0.5596	0.5596	0.0595998	-0.578
O 	O 	0.5596	0.4404	0.9404	-0.611
O 	O 	0.0595998	0.4404	0.4404	-0.579
O 	O 	0.9404	0.4404	0.5596	-0.612
O 	O 	0.0595998	0.5596	0.5596	-0.578
O 	O 	0.9404	0.5596	0.4404	-0.611
O 	O 	0.0595998	0.5686	0.9504	-0.558
O 	O 	0.9404	0.4314	0.9504	-0.633
O 	O 	0.9404	0.5686	0.0496002	-0.615
O 	O 	0.0595998	0.4314	0.0496002	-0.55
O 	O 	0.9504	0.0595998	0.5686	-0.558
O 	O 	0.9504	0.9404	0.4314	-0.633
O 	O 	0.0495997	0.9404	0.5686	-0.615
O 	O 	0.0496002	0.0595998	0.4314	-0.55
O 	O 	0.5686	0.9504	0.0595998	-0.558
O 	O 	0.4314	0.9504	0.9404	-0.633
O 	O 	0.5686	0.0496002	0.9404	-0.615
O 	O 	0.4314	0.0496002	0.0595998	-0.55
O 	O 	0.4404	0.9314	0.5496	-0.66
O 	O 	0.5596	0.0686002	0.5496	-0.518
O 	O 	0.5596	0.9314	0.4504	-0.659
O 	O 	0.4404	0.0686002	0.4504	-0.518
O 	O 	0.5496	0.4404	0.9314	-0.66
O 	O 	0.5496	0.5596	0.0686002	-0.518
O 	O 	0.4504	0.5596	0.9314	-0.659
O 	O 	0.4504	0.4404	0.0686002	-0.518
O 	O 	0.9314	0.5496	0.4404	-0.66
O 	O 	0.0686002	0.5496	0.5596	-0.518
O 	O 	0.9314	0.4504	0.5596	-0.659
O 	O 	0.0686002	0.4504	0.4404	-0.518
O 	O 	0.0784999	0.4215	0.0784999	0.172
O 	O 	0.9215	0.5785	0.0784999	0.153
O 	O 	0.9215	0.4215	0.9215	0.076
O 	O 	0.0784999	0.5785	0.9215	0.074
O 	O 	0.0784999	0.0784999	0.4215	0.172
O 	O 	0.0784999	0.9215	0.5785	0.153
O 	O 	0.9215	0.9215	0.4215	0.076
O 	O 	0.9215	0.0784999	0.5785	0.074
O 	O 	0.4215	0.0784999	0.0784999	0.172
O 	O 	0.5785	0.0784999	0.9215	0.153
O 	O 	0.4215	0.9215	0.9215	0.076
O 	O 	0.5785	0.9215	0.0784999	0.074
O 	O 	0.4215	0.0784999	0.4215	0.094
O 	O 	0.5785	0.9215	0.4215	0.196
O 	O 	0.5785	0.0784999	0.5785	0.094
O 	O 	0.4215	0.9215	0.5785	0.196
O 	O 	0.4215	0.4215	0.0784999	0.094
O 	O 	0.4215	0.5785	0.9215	0.196
O 	O 	0.5785	0.5785	0.0784999	0.094
O 	O 	0.5785	0.4215	0.9215	0.196
O 	O 	0.0784999	0.4215	0.4215	0.094
O 	O 	0.9215	0.4215	0.5785	0.196
O 	O 	0.0784999	0.5785	0.5785	0.094
O 	O 	0.9215	0.5785	0.4215	0.196
_end
