data_functionalizedCrystal
_audit_creation_method	'EQeq! by Chris Wilmer'
_symmetry_space_group_name_H-M	'P1'
_symmetry_Int_Tables_number	1
_symmetry_cell_setting	triclinic
loop_
_symmetry_equiv_pos_as_xyz
  x,y,z
_cell_length_a	37.072
_cell_length_b	37.072
_cell_length_c	30.0333
_cell_angle_alpha	90
_cell_angle_beta	90
_cell_angle_gamma	120
loop_
_atom_site_label
_atom_site_type_symbol
_atom_site_fract_x
_atom_site_fract_y
_atom_site_fract_z
_atom_site_charge
Zn	Zn	0.156	0.296	0.1983	1.209
Zn	Zn	0.2246	0.3663	0.2602	1.219
O 	O 	0.3716	0.2388	0.8214	-0.507
O 	O 	0.3185	0.1796	0.8511	-0.5
O 	O 	0.5854	0.3323	0.227	-0.465
O 	O 	0.6151	0.3267	0.1653	-0.493
O 	O 	0.2603	0.3527	0.2243	-0.509
O 	O 	0.2114	0.3047	0.1815	-0.487
O 	O 	0.1186	0.2396	0.2121	-0.525
O 	O 	0.2429	0.4245	0.2464	-0.476
C 	C 	0.3884	0.28	0.0335	-0.004
C 	C 	0.4249	0.2881	0.0536	-0.038
C 	C 	0.4349	0.302	0.098	-0.012
C 	C 	0.4068	0.3092	0.1206	-0.031
C 	C 	0.3699	0.3012	0.1018	-0.021
C 	C 	0.3607	0.2857	0.0589	-0.034
C 	C 	0.4734	0.3082	0.1185	0.063
C 	C 	0.4919	0.2874	0.107	-0.097
C 	C 	0.5276	0.2952	0.128	0.061
C 	C 	0.5442	0.3197	0.1608	-0.141
C 	C 	0.5272	0.3422	0.1703	0.062
C 	C 	0.4917	0.3352	0.1493	-0.097
C 	C 	0.34	0.3092	0.1242	0.088
C 	C 	0.3477	0.3352	0.1565	-0.132
C 	C 	0.3183	0.3416	0.1799	0.144
C 	C 	0.2822	0.3225	0.1705	-0.272
C 	C 	0.2713	0.2985	0.1365	0.125
C 	C 	0.3001	0.2921	0.1137	-0.126
C 	C 	0.3806	0.2659	0.9858	0.044
C 	C 	0.3404	0.2352	0.9745	-0.082
C 	C 	0.3985	0.2638	0.9112	0.054
C 	C 	0.3599	0.2321	0.9004	-0.151
C 	C 	0.4073	0.2754	0.9531	-0.086
C 	C 	0.3504	0.2168	0.854	0.383
C 	C 	0.5844	0.3247	0.1826	0.374
C 	C 	0.2531	0.3285	0.1928	0.429
C 	C 	0.041	0.1128	0.2858	-0.069
C 	C 	0.0634	0.1571	0.2858	0.043
C 	C 	0.3066	0.554	0.2354	-0.072
C 	C 	0.285	0.5124	0.2356	0.035
C 	C 	0.3324	0.2204	0.9291	0.061
Zn	Zn	0.6219	0.3407	0.2779	1.196
Zn	Zn	0.14	0.296	0.3017	1.208
Zn	Zn	0.1417	0.3663	0.2398	1.218
O 	O 	0.3716	0.1328	0.6786	-0.508
O 	O 	0.3185	0.1389	0.6489	-0.501
O 	O 	0.6047	0.2385	0.3007	-0.423
O 	O 	0.5822	0.294	0.3102	-0.465
O 	O 	0.0924	0.3527	0.2757	-0.51
O 	O 	0.0933	0.3047	0.3185	-0.487
O 	O 	0.121	0.2396	0.2879	-0.525
O 	O 	0.1816	0.4245	0.2536	-0.476
C 	C 	0.3884	0.1084	0.4665	-0
C 	C 	0.4249	0.1368	0.4464	-0.045
C 	C 	0.4349	0.1329	0.402	0.004
C 	C 	0.4068	0.0976	0.3794	-0.039
C 	C 	0.3699	0.0687	0.3982	-0.017
C 	C 	0.3607	0.075	0.4411	-0.038
C 	C 	0.4734	0.1652	0.3815	0.025
C 	C 	0.4919	0.2045	0.393	-0.055
C 	C 	0.5276	0.2324	0.372	-0.004
C 	C 	0.5442	0.2245	0.3392	-0.028
C 	C 	0.5272	0.185	0.3297	-0.002
C 	C 	0.4917	0.1565	0.3507	-0.054
C 	C 	0.34	0.0308	0.3758	0.086
C 	C 	0.3477	0.0125	0.3435	-0.13
C 	C 	0.0233	0.3416	0.3201	0.143
C 	C 	0.0403	0.3225	0.3295	-0.271
C 	C 	0.0272	0.2985	0.3635	0.124
C 	C 	0.3001	0.008	0.3863	-0.125
C 	C 	0.3806	0.1147	0.5142	0.042
C 	C 	0.3404	0.1052	0.5255	-0.081
C 	C 	0.3985	0.1347	0.5888	0.053
C 	C 	0.3599	0.1278	0.5996	-0.15
C 	C 	0.4073	0.1319	0.5469	-0.085
C 	C 	0.3504	0.1336	0.646	0.383
C 	C 	0.5844	0.2597	0.3174	0.177
C 	C 	0.0754	0.3285	0.3072	0.429
C 	C 	0.0718	0.1128	0.2142	-0.069
C 	C 	0.0937	0.1571	0.2142	0.043
C 	C 	0.2474	0.554	0.2646	-0.072
C 	C 	0.2274	0.5124	0.2644	0.035
C 	C 	0.3324	0.112	0.5709	0.061
Zn	Zn	0.3407	0.6219	0.7779	1.196
Zn	Zn	0.296	0.14	0.8017	1.208
Zn	Zn	0.3663	0.1417	0.7398	1.218
O 	O 	0.1328	0.3716	0.1786	-0.508
O 	O 	0.1389	0.3185	0.1489	-0.501
O 	O 	0.2385	0.6047	0.8007	-0.423
O 	O 	0.294	0.5822	0.8102	-0.465
O 	O 	0.3527	0.0924	0.7757	-0.51
O 	O 	0.3047	0.0933	0.8185	-0.487
O 	O 	0.2396	0.121	0.7879	-0.525
O 	O 	0.4245	0.1816	0.7536	-0.476
C 	C 	0.1084	0.3884	0.9665	-0
C 	C 	0.1368	0.4249	0.9464	-0.045
C 	C 	0.1329	0.4349	0.902	0.003
C 	C 	0.0976	0.4068	0.8794	-0.039
C 	C 	0.0687	0.3699	0.8982	-0.017
C 	C 	0.075	0.3607	0.9411	-0.038
C 	C 	0.1652	0.4734	0.8815	0.025
C 	C 	0.2045	0.4919	0.893	-0.055
C 	C 	0.2324	0.5276	0.872	-0.004
C 	C 	0.2245	0.5442	0.8392	-0.028
C 	C 	0.185	0.5272	0.8297	-0.002
C 	C 	0.1565	0.4917	0.8507	-0.054
C 	C 	0.0308	0.34	0.8758	0.086
C 	C 	0.0125	0.3477	0.8435	-0.13
C 	C 	0.3416	0.0233	0.8201	0.143
C 	C 	0.3225	0.0403	0.8295	-0.271
C 	C 	0.2985	0.0272	0.8635	0.124
C 	C 	0.008	0.3001	0.8863	-0.125
C 	C 	0.1147	0.3806	0.0142	0.042
C 	C 	0.1052	0.3404	0.0255	-0.081
C 	C 	0.1347	0.3985	0.0888	0.053
C 	C 	0.1278	0.3599	0.0996	-0.15
C 	C 	0.1319	0.4073	0.0469	-0.085
C 	C 	0.1336	0.3504	0.146	0.383
C 	C 	0.2597	0.5844	0.8174	0.177
C 	C 	0.3285	0.0754	0.8072	0.429
C 	C 	0.1128	0.0718	0.7142	-0.069
C 	C 	0.1571	0.0937	0.7142	0.043
C 	C 	0.554	0.2474	0.7646	-0.072
C 	C 	0.5124	0.2274	0.7644	0.035
C 	C 	0.112	0.3324	0.0709	0.061
Zn	Zn	0.296	0.156	0.6983	1.208
Zn	Zn	0.3663	0.2246	0.7602	1.218
O 	O 	0.2388	0.3716	0.3214	-0.508
O 	O 	0.1796	0.3185	0.3511	-0.501
O 	O 	0.3323	0.5854	0.727	-0.466
O 	O 	0.3267	0.6151	0.6653	-0.494
O 	O 	0.3527	0.2603	0.7243	-0.51
O 	O 	0.3047	0.2114	0.6815	-0.487
O 	O 	0.2396	0.1186	0.7121	-0.525
O 	O 	0.4245	0.2429	0.7464	-0.476
C 	C 	0.28	0.3884	0.5335	-0.004
C 	C 	0.2881	0.4249	0.5536	-0.038
C 	C 	0.302	0.4349	0.598	-0.012
C 	C 	0.3092	0.4068	0.6206	-0.031
C 	C 	0.3012	0.3699	0.6018	-0.021
C 	C 	0.2857	0.3607	0.5589	-0.034
C 	C 	0.3082	0.4734	0.6185	0.063
C 	C 	0.2874	0.4919	0.607	-0.097
C 	C 	0.2952	0.5276	0.628	0.061
C 	C 	0.3197	0.5442	0.6608	-0.141
C 	C 	0.3422	0.5272	0.6703	0.062
C 	C 	0.3352	0.4917	0.6493	-0.097
C 	C 	0.3092	0.34	0.6242	0.088
C 	C 	0.3352	0.3477	0.6565	-0.132
C 	C 	0.3416	0.3183	0.6799	0.144
C 	C 	0.3225	0.2822	0.6705	-0.272
C 	C 	0.2985	0.2713	0.6365	0.125
C 	C 	0.2921	0.3001	0.6137	-0.126
C 	C 	0.2659	0.3806	0.4858	0.044
C 	C 	0.2352	0.3404	0.4745	-0.082
C 	C 	0.2638	0.3985	0.4112	0.054
C 	C 	0.2321	0.3599	0.4004	-0.151
C 	C 	0.2754	0.4073	0.4531	-0.086
C 	C 	0.2168	0.3504	0.354	0.383
C 	C 	0.3247	0.5844	0.6826	0.374
C 	C 	0.3285	0.2531	0.6928	0.429
C 	C 	0.1128	0.041	0.7858	-0.069
C 	C 	0.1571	0.0634	0.7858	0.043
C 	C 	0.554	0.3066	0.7354	-0.072
C 	C 	0.5124	0.285	0.7356	0.035
C 	C 	0.2204	0.3324	0.4291	0.061
Zn	Zn	0.66666	0.33333	0.1904	1.231
Zn	Zn	0.33333	0.66666	0.6904	1.231
O 	O 	0.16645	0.3329	0.25	-0.961
C 	C 	0.02165	0.0433	0.25	0.013
C 	C 	0.04535	0.0907	0.25	0.024
C 	C 	0.0888	0.1776	0.25	-0.152
C 	C 	0.11045	0.2209	0.25	0.394
C 	C 	0.31195	0.6239	0.25	0.012
C 	C 	0.2878	0.5756	0.25	0.03
C 	C 	0.24505	0.4901	0.25	-0.113
C 	C 	0.22155	0.4431	0.25	0.351
O 	O 	0.3329	0.16645	0.75	-0.961
C 	C 	0.0433	0.02165	0.75	0.013
C 	C 	0.0907	0.04535	0.75	0.024
C 	C 	0.1776	0.0888	0.75	-0.152
C 	C 	0.2209	0.11045	0.75	0.394
C 	C 	0.6239	0.31195	0.75	0.012
C 	C 	0.5756	0.2878	0.75	0.03
C 	C 	0.4901	0.24505	0.75	-0.113
C 	C 	0.4431	0.22155	0.75	0.351
O 	O 	0.66666	0.33333	0.25	-0.971
O 	O 	0.33333	0.66666	0.75	-0.971
C 	C 	0.0428	0.0214	0.25	-0.057
C 	C 	0.0214	0.0428	0.75	-0.057
C 	C 	0.2896	0.6448	0.25	-0.054
C 	C 	0.3552	0.6448	0.25	-0.054
C 	C 	0.6448	0.2896	0.75	-0.054
C 	C 	0.6448	0.3552	0.75	-0.054
H 	H 	0.44888	0.28366	0.0343	0.036
H 	H 	0.41401	0.32216	0.15593	0.033
H 	H 	0.32901	0.27755	0.04466	0.033
H 	H 	0.47808	0.26294	0.07955	0.049
H 	H 	0.54529	0.2791	0.11638	0.021
H 	H 	0.54205	0.36794	0.19634	0.021
H 	H 	0.47833	0.35541	0.1609	0.048
H 	H 	0.38103	0.3558	0.16864	0.055
H 	H 	0.32895	0.36526	0.20817	0.007
H 	H 	0.23756	0.28211	0.12467	0.009
H 	H 	0.28716	0.27026	0.08388	0.052
H 	H 	0.3148	0.22239	0.0008	0.045
H 	H 	0.42289	0.28007	0.88408	0.026
H 	H 	0.4421	0.2957	0.95971	0.046
H 	H 	0.01951	0.09517	0.3148	0.043
H 	H 	0.06017	0.17495	0.31498	0.025
H 	H 	0.34024	0.57154	0.22329	0.042
H 	H 	0.30009	0.49397	0.22326	0.033
H 	H 	0.29939	0.19675	0.91824	0.025
H 	H 	0.44888	0.16522	0.4657	0.037
H 	H 	0.41401	0.09185	0.34407	0.035
H 	H 	0.32901	0.05146	0.45534	0.034
H 	H 	0.47808	0.21514	0.42045	0.039
H 	H 	0.54529	0.26619	0.38362	0.034
H 	H 	0.54205	0.17411	0.30366	0.045
H 	H 	0.47833	0.12292	0.3391	0.038
H 	H 	0.38103	0.02523	0.33136	0.054
H 	H 	0.03631	0.36526	0.29183	0.007
H 	H 	0.04455	0.28211	0.37533	0.009
H 	H 	0.28716	0.0169	0.41612	0.052
H 	H 	0.3148	0.09241	0.4992	0.044
H 	H 	0.42289	0.14282	0.61592	0.026
H 	H 	0.4421	0.1464	0.54029	0.045
H 	H 	0.07566	0.09517	0.1852	0.043
H 	H 	0.11478	0.17495	0.18502	0.025
H 	H 	0.2313	0.57154	0.27671	0.043
H 	H 	0.19388	0.49397	0.27674	0.033
H 	H 	0.29939	0.10264	0.58176	0.025
H 	H 	0.16522	0.44888	0.9657	0.037
H 	H 	0.09185	0.41401	0.84407	0.035
H 	H 	0.05146	0.32901	0.95534	0.034
H 	H 	0.21514	0.47808	0.92045	0.039
H 	H 	0.26619	0.54529	0.88362	0.034
H 	H 	0.17411	0.54205	0.80366	0.045
H 	H 	0.12292	0.47833	0.8391	0.038
H 	H 	0.02523	0.38103	0.83136	0.054
H 	H 	0.36526	0.03631	0.79183	0.007
H 	H 	0.28211	0.04455	0.87533	0.009
H 	H 	0.0169	0.28716	0.91612	0.052
H 	H 	0.09241	0.3148	0.9992	0.044
H 	H 	0.14282	0.42289	0.11592	0.026
H 	H 	0.1464	0.4421	0.04029	0.045
H 	H 	0.09517	0.07566	0.6852	0.043
H 	H 	0.17495	0.11478	0.68502	0.025
H 	H 	0.57154	0.2313	0.77671	0.043
H 	H 	0.49397	0.19388	0.77674	0.033
H 	H 	0.10264	0.29939	0.08176	0.025
H 	H 	0.28366	0.44888	0.5343	0.036
H 	H 	0.32216	0.41401	0.65593	0.033
H 	H 	0.27755	0.32901	0.54466	0.033
H 	H 	0.26294	0.47808	0.57955	0.049
H 	H 	0.2791	0.54529	0.61638	0.021
H 	H 	0.36794	0.54205	0.69634	0.021
H 	H 	0.35541	0.47833	0.6609	0.048
H 	H 	0.3558	0.38103	0.66864	0.055
H 	H 	0.36526	0.32895	0.70817	0.007
H 	H 	0.28211	0.23756	0.62467	0.009
H 	H 	0.27026	0.28716	0.58388	0.052
H 	H 	0.22239	0.3148	0.5008	0.045
H 	H 	0.28007	0.42289	0.38408	0.026
H 	H 	0.2957	0.4421	0.45971	0.046
H 	H 	0.09517	0.01951	0.8148	0.043
H 	H 	0.17495	0.06017	0.81498	0.025
H 	H 	0.57154	0.34024	0.72329	0.042
H 	H 	0.49397	0.30009	0.72326	0.033
H 	H 	0.19675	0.29939	0.41824	0.025
H 	H 	0.07831	0.03884	0.25	0.043
H 	H 	0.03947	0.07831	0.75	0.043
H 	H 	0.2541	0.62645	0.25	0.038
H 	H 	0.62645	0.37235	0.75	0.038
Zn	Zn	0.704	0.86	0.1983	1.208
Zn	Zn	0.6337	0.8583	0.2602	1.218
O 	O 	0.7612	0.1328	0.8214	-0.508
O 	O 	0.8204	0.1389	0.8511	-0.501
O 	O 	0.6677	0.2531	0.227	-0.466
O 	O 	0.6733	0.2884	0.1653	-0.493
O 	O 	0.6473	0.9076	0.2243	-0.51
O 	O 	0.6953	0.9067	0.1815	-0.487
O 	O 	0.7604	0.879	0.2121	-0.525
O 	O 	0.5755	0.8184	0.2464	-0.476
C 	C 	0.72	0.1084	0.0335	-0.004
C 	C 	0.7119	0.1368	0.0536	-0.038
C 	C 	0.698	0.1329	0.098	-0.012
C 	C 	0.6908	0.0976	0.1206	-0.031
C 	C 	0.6988	0.0687	0.1018	-0.021
C 	C 	0.7143	0.075	0.0589	-0.034
C 	C 	0.6918	0.1652	0.1185	0.063
C 	C 	0.7126	0.2045	0.107	-0.097
C 	C 	0.7048	0.2324	0.128	0.061
C 	C 	0.6803	0.2245	0.1608	-0.141
C 	C 	0.6578	0.185	0.1703	0.062
C 	C 	0.6648	0.1565	0.1493	-0.097
C 	C 	0.6908	0.0308	0.1242	0.088
C 	C 	0.6648	0.0125	0.1565	-0.132
C 	C 	0.6584	0.9767	0.1799	0.144
C 	C 	0.6775	0.9597	0.1705	-0.272
C 	C 	0.7015	0.9728	0.1365	0.125
C 	C 	0.7079	0.008	0.1137	-0.126
C 	C 	0.7341	0.1147	0.9858	0.044
C 	C 	0.7648	0.1052	0.9745	-0.082
C 	C 	0.7362	0.1347	0.9112	0.054
C 	C 	0.7679	0.1278	0.9004	-0.151
C 	C 	0.7246	0.1319	0.9531	-0.086
C 	C 	0.7832	0.1336	0.854	0.383
C 	C 	0.6753	0.2597	0.1826	0.374
C 	C 	0.6715	0.9246	0.1928	0.429
C 	C 	0.8872	0.9282	0.2858	-0.069
C 	C 	0.8429	0.9063	0.2858	0.043
C 	C 	0.446	0.7526	0.2354	-0.072
C 	C 	0.4876	0.7726	0.2356	0.035
C 	C 	0.7796	0.112	0.9291	0.061
Zn	Zn	0.6593	0.2812	0.2779	1.196
Zn	Zn	0.704	0.844	0.3017	1.208
Zn	Zn	0.6337	0.7754	0.2398	1.218
O 	O 	0.8672	0.2388	0.6786	-0.508
O 	O 	0.8611	0.1796	0.6489	-0.501
O 	O 	0.7615	0.3662	0.3007	-0.423
O 	O 	0.706	0.2882	0.3102	-0.465
O 	O 	0.6473	0.7397	0.2757	-0.51
O 	O 	0.6953	0.7886	0.3185	-0.487
O 	O 	0.7604	0.8814	0.2879	-0.525
O 	O 	0.5755	0.7571	0.2536	-0.476
C 	C 	0.8916	0.28	0.4665	-0
C 	C 	0.8632	0.2881	0.4464	-0.045
C 	C 	0.8671	0.302	0.402	0.004
C 	C 	0.9024	0.3092	0.3794	-0.039
C 	C 	0.9313	0.3012	0.3982	-0.017
C 	C 	0.925	0.2857	0.4411	-0.038
C 	C 	0.8348	0.3082	0.3815	0.025
C 	C 	0.7955	0.2874	0.393	-0.055
C 	C 	0.7676	0.2952	0.372	-0.004
C 	C 	0.7755	0.3197	0.3392	-0.028
C 	C 	0.815	0.3422	0.3297	-0.002
C 	C 	0.8435	0.3352	0.3507	-0.054
C 	C 	0.9692	0.3092	0.3758	0.086
C 	C 	0.9875	0.3352	0.3435	-0.13
C 	C 	0.6584	0.6817	0.3201	0.143
C 	C 	0.6775	0.7178	0.3295	-0.271
C 	C 	0.7015	0.7287	0.3635	0.124
C 	C 	0.992	0.2921	0.3863	-0.125
C 	C 	0.8853	0.2659	0.5142	0.042
C 	C 	0.8948	0.2352	0.5255	-0.081
C 	C 	0.8653	0.2638	0.5888	0.053
C 	C 	0.8722	0.2321	0.5996	-0.15
C 	C 	0.8681	0.2754	0.5469	-0.085
C 	C 	0.8664	0.2168	0.646	0.383
C 	C 	0.7403	0.3247	0.3174	0.177
C 	C 	0.6715	0.7469	0.3072	0.429
C 	C 	0.8872	0.959	0.2142	-0.069
C 	C 	0.8429	0.9366	0.2142	0.043
C 	C 	0.446	0.6934	0.2646	-0.072
C 	C 	0.4876	0.715	0.2644	0.035
C 	C 	0.888	0.2204	0.5709	0.061
Zn	Zn	0.3781	0.7188	0.7779	1.196
Zn	Zn	0.86	0.156	0.8017	1.208
Zn	Zn	0.8583	0.2246	0.7398	1.218
O 	O 	0.6284	0.7612	0.1786	-0.508
O 	O 	0.6815	0.8204	0.1489	-0.501
O 	O 	0.3953	0.6338	0.8007	-0.423
O 	O 	0.4178	0.7118	0.8102	-0.465
O 	O 	0.9076	0.2603	0.7757	-0.51
O 	O 	0.9067	0.2114	0.8185	-0.487
O 	O 	0.879	0.1186	0.7879	-0.525
O 	O 	0.8184	0.2429	0.7536	-0.476
C 	C 	0.6116	0.72	0.9665	-0
C 	C 	0.5751	0.7119	0.9464	-0.045
C 	C 	0.5651	0.698	0.902	0.003
C 	C 	0.5932	0.6908	0.8794	-0.039
C 	C 	0.6301	0.6988	0.8982	-0.017
C 	C 	0.6393	0.7143	0.9411	-0.038
C 	C 	0.5266	0.6918	0.8815	0.025
C 	C 	0.5081	0.7126	0.893	-0.055
C 	C 	0.4724	0.7048	0.872	-0.004
C 	C 	0.4558	0.6803	0.8392	-0.028
C 	C 	0.4728	0.6578	0.8297	-0.002
C 	C 	0.5083	0.6648	0.8507	-0.054
C 	C 	0.66	0.6908	0.8758	0.086
C 	C 	0.6523	0.6648	0.8435	-0.13
C 	C 	0.9767	0.3183	0.8201	0.143
C 	C 	0.9597	0.2822	0.8295	-0.271
C 	C 	0.9728	0.2713	0.8635	0.124
C 	C 	0.6999	0.7079	0.8863	-0.125
C 	C 	0.6194	0.7341	0.0142	0.042
C 	C 	0.6596	0.7648	0.0255	-0.081
C 	C 	0.6015	0.7362	0.0888	0.053
C 	C 	0.6401	0.7679	0.0996	-0.15
C 	C 	0.5927	0.7246	0.0469	-0.085
C 	C 	0.6496	0.7832	0.146	0.383
C 	C 	0.4156	0.6753	0.8174	0.177
C 	C 	0.9246	0.2531	0.8072	0.429
C 	C 	0.9282	0.041	0.7142	-0.069
C 	C 	0.9063	0.0634	0.7142	0.043
C 	C 	0.7526	0.3066	0.7646	-0.072
C 	C 	0.7726	0.285	0.7644	0.035
C 	C 	0.6676	0.7796	0.0709	0.061
Zn	Zn	0.844	0.14	0.6983	1.208
Zn	Zn	0.7754	0.1417	0.7602	1.218
O 	O 	0.6284	0.8672	0.3214	-0.508
O 	O 	0.6815	0.8611	0.3511	-0.501
O 	O 	0.4146	0.7469	0.727	-0.466
O 	O 	0.3849	0.7116	0.6653	-0.493
O 	O 	0.7397	0.0924	0.7243	-0.51
O 	O 	0.7886	0.0933	0.6815	-0.487
O 	O 	0.8814	0.121	0.7121	-0.525
O 	O 	0.7571	0.1816	0.7464	-0.476
C 	C 	0.6116	0.8916	0.5335	-0.004
C 	C 	0.5751	0.8632	0.5536	-0.038
C 	C 	0.5651	0.8671	0.598	-0.012
C 	C 	0.5932	0.9024	0.6206	-0.031
C 	C 	0.6301	0.9313	0.6018	-0.021
C 	C 	0.6393	0.925	0.5589	-0.034
C 	C 	0.5266	0.8348	0.6185	0.063
C 	C 	0.5081	0.7955	0.607	-0.097
C 	C 	0.4724	0.7676	0.628	0.061
C 	C 	0.4558	0.7755	0.6608	-0.141
C 	C 	0.4728	0.815	0.6703	0.062
C 	C 	0.5083	0.8435	0.6493	-0.097
C 	C 	0.66	0.9692	0.6242	0.088
C 	C 	0.6523	0.9875	0.6565	-0.132
C 	C 	0.6817	0.0233	0.6799	0.144
C 	C 	0.7178	0.0403	0.6705	-0.272
C 	C 	0.7287	0.0272	0.6365	0.125
C 	C 	0.6999	0.992	0.6137	-0.126
C 	C 	0.6194	0.8853	0.4858	0.044
C 	C 	0.6596	0.8948	0.4745	-0.082
C 	C 	0.6015	0.8653	0.4112	0.054
C 	C 	0.6401	0.8722	0.4004	-0.151
C 	C 	0.5927	0.8681	0.4531	-0.086
C 	C 	0.6496	0.8664	0.354	0.383
C 	C 	0.4156	0.7403	0.6826	0.374
C 	C 	0.7469	0.0754	0.6928	0.429
C 	C 	0.959	0.0718	0.7858	-0.069
C 	C 	0.9366	0.0937	0.7858	0.043
C 	C 	0.6934	0.2474	0.7354	-0.072
C 	C 	0.715	0.2274	0.7356	0.035
C 	C 	0.6676	0.888	0.4291	0.061
O 	O 	0.6671	0.83355	0.25	-0.961
C 	C 	0.9567	0.97835	0.25	0.013
C 	C 	0.9093	0.95465	0.25	0.024
C 	C 	0.8224	0.9112	0.25	-0.152
C 	C 	0.7791	0.88955	0.25	0.394
C 	C 	0.3761	0.68805	0.25	0.012
C 	C 	0.4244	0.7122	0.25	0.03
C 	C 	0.5099	0.75495	0.25	-0.113
C 	C 	0.5569	0.77845	0.25	0.351
O 	O 	0.83355	0.16645	0.75	-0.961
C 	C 	0.97835	0.02165	0.75	0.013
C 	C 	0.95465	0.04535	0.75	0.024
C 	C 	0.9112	0.0888	0.75	-0.152
C 	C 	0.88955	0.11045	0.75	0.394
C 	C 	0.68805	0.31195	0.75	0.012
C 	C 	0.7122	0.2878	0.75	0.03
C 	C 	0.75495	0.24505	0.75	-0.113
C 	C 	0.77845	0.22155	0.75	0.351
C 	C 	0.9786	0.0214	0.25	-0.057
C 	C 	0.9572	0.9786	0.75	-0.057
C 	C 	0.3552	0.7104	0.25	-0.054
C 	C 	0.7104	0.3552	0.75	-0.054
H 	H 	0.71634	0.16522	0.0343	0.036
H 	H 	0.67784	0.09185	0.15593	0.033
H 	H 	0.72245	0.05146	0.04466	0.033
H 	H 	0.73706	0.21514	0.07955	0.049
H 	H 	0.7209	0.26619	0.11638	0.021
H 	H 	0.63206	0.17411	0.19634	0.021
H 	H 	0.64459	0.12292	0.1609	0.048
H 	H 	0.6442	0.02523	0.16864	0.055
H 	H 	0.63474	0.96369	0.20817	0.007
H 	H 	0.71789	0.95545	0.12467	0.009
H 	H 	0.72974	0.0169	0.08388	0.052
H 	H 	0.77761	0.09241	0.0008	0.045
H 	H 	0.71993	0.14282	0.88408	0.026
H 	H 	0.7043	0.1464	0.95971	0.046
H 	H 	0.90483	0.92434	0.3148	0.043
H 	H 	0.82505	0.88522	0.31498	0.025
H 	H 	0.42846	0.7687	0.22329	0.042
H 	H 	0.50603	0.80612	0.22326	0.033
H 	H 	0.80325	0.10264	0.91824	0.025
H 	H 	0.83478	0.28366	0.4657	0.037
H 	H 	0.90815	0.32216	0.34407	0.035
H 	H 	0.94854	0.27755	0.45534	0.034
H 	H 	0.78486	0.26294	0.42045	0.039
H 	H 	0.73381	0.2791	0.38362	0.034
H 	H 	0.82589	0.36794	0.30366	0.045
H 	H 	0.87708	0.35541	0.3391	0.038
H 	H 	0.97477	0.3558	0.33136	0.054
H 	H 	0.63474	0.67105	0.29183	0.007
H 	H 	0.71789	0.76244	0.37533	0.009
H 	H 	0.9831	0.27026	0.41612	0.052
H 	H 	0.90759	0.22239	0.4992	0.044
H 	H 	0.85718	0.28007	0.61592	0.026
H 	H 	0.8536	0.2957	0.54029	0.045
H 	H 	0.90483	0.98049	0.1852	0.043
H 	H 	0.82505	0.93983	0.18502	0.025
H 	H 	0.42846	0.65976	0.27671	0.043
H 	H 	0.50603	0.69991	0.27674	0.033
H 	H 	0.89736	0.19675	0.58176	0.025
H 	H 	0.55112	0.71634	0.9657	0.037
H 	H 	0.58599	0.67784	0.84407	0.035
H 	H 	0.67099	0.72245	0.95534	0.034
H 	H 	0.52192	0.73706	0.92045	0.039
H 	H 	0.45471	0.7209	0.88362	0.034
H 	H 	0.45795	0.63206	0.80366	0.045
H 	H 	0.52167	0.64459	0.8391	0.038
H 	H 	0.61897	0.6442	0.83136	0.054
H 	H 	0.96369	0.32895	0.79183	0.007
H 	H 	0.95545	0.23756	0.87533	0.009
H 	H 	0.71284	0.72974	0.91612	0.052
H 	H 	0.6852	0.77761	0.9992	0.044
H 	H 	0.57711	0.71993	0.11592	0.026
H 	H 	0.5579	0.7043	0.04029	0.045
H 	H 	0.92434	0.01951	0.6852	0.043
H 	H 	0.88522	0.06017	0.68502	0.025
H 	H 	0.7687	0.34024	0.77671	0.043
H 	H 	0.80612	0.30009	0.77674	0.033
H 	H 	0.70061	0.80325	0.08176	0.025
H 	H 	0.55112	0.83478	0.5343	0.036
H 	H 	0.58599	0.90815	0.65593	0.033
H 	H 	0.67099	0.94854	0.54466	0.033
H 	H 	0.52192	0.78486	0.57955	0.049
H 	H 	0.45471	0.73381	0.61638	0.021
H 	H 	0.45795	0.82589	0.69634	0.021
H 	H 	0.52167	0.87708	0.6609	0.048
H 	H 	0.61897	0.97477	0.66864	0.055
H 	H 	0.67105	0.03631	0.70817	0.007
H 	H 	0.76244	0.04455	0.62467	0.009
H 	H 	0.71284	0.9831	0.58388	0.052
H 	H 	0.6852	0.90759	0.5008	0.045
H 	H 	0.57711	0.85718	0.38408	0.026
H 	H 	0.5579	0.8536	0.45971	0.046
H 	H 	0.98049	0.07566	0.8148	0.043
H 	H 	0.93983	0.11478	0.81498	0.025
H 	H 	0.65976	0.2313	0.72329	0.042
H 	H 	0.69991	0.19388	0.72326	0.033
H 	H 	0.70061	0.89736	0.41824	0.025
H 	H 	0.96116	0.03947	0.25	0.043
H 	H 	0.92169	0.96116	0.75	0.043
H 	H 	0.37355	0.62765	0.25	0.038
H 	H 	0.62765	0.2541	0.75	0.038
Zn	Zn	0.14	0.844	0.1983	1.208
Zn	Zn	0.1417	0.7754	0.2602	1.218
O 	O 	0.8672	0.6284	0.8214	-0.508
O 	O 	0.8611	0.6815	0.8511	-0.501
O 	O 	0.7469	0.4146	0.227	-0.466
O 	O 	0.7116	0.3849	0.1653	-0.493
O 	O 	0.0924	0.7397	0.2243	-0.51
O 	O 	0.0933	0.7886	0.1815	-0.487
O 	O 	0.121	0.8814	0.2121	-0.525
O 	O 	0.1816	0.7571	0.2464	-0.476
C 	C 	0.8916	0.6116	0.0335	-0.004
C 	C 	0.8632	0.5751	0.0536	-0.038
C 	C 	0.8671	0.5651	0.098	-0.012
C 	C 	0.9024	0.5932	0.1206	-0.031
C 	C 	0.9313	0.6301	0.1018	-0.021
C 	C 	0.925	0.6393	0.0589	-0.034
C 	C 	0.8348	0.5266	0.1185	0.063
C 	C 	0.7955	0.5081	0.107	-0.097
C 	C 	0.7676	0.4724	0.128	0.061
C 	C 	0.7755	0.4558	0.1608	-0.141
C 	C 	0.815	0.4728	0.1703	0.062
C 	C 	0.8435	0.5083	0.1493	-0.097
C 	C 	0.9692	0.66	0.1242	0.088
C 	C 	0.9875	0.6523	0.1565	-0.132
C 	C 	0.0233	0.6817	0.1799	0.144
C 	C 	0.0403	0.7178	0.1705	-0.272
C 	C 	0.0272	0.7287	0.1365	0.125
C 	C 	0.992	0.6999	0.1137	-0.126
C 	C 	0.8853	0.6194	0.9858	0.044
C 	C 	0.8948	0.6596	0.9745	-0.082
C 	C 	0.8653	0.6015	0.9112	0.054
C 	C 	0.8722	0.6401	0.9004	-0.151
C 	C 	0.8681	0.5927	0.9531	-0.086
C 	C 	0.8664	0.6496	0.854	0.383
C 	C 	0.7403	0.4156	0.1826	0.374
C 	C 	0.0754	0.7469	0.1928	0.429
C 	C 	0.0718	0.959	0.2858	-0.069
C 	C 	0.0937	0.9366	0.2858	0.043
C 	C 	0.2474	0.6934	0.2354	-0.072
C 	C 	0.2274	0.715	0.2356	0.035
C 	C 	0.888	0.6676	0.9291	0.061
Zn	Zn	0.7188	0.3781	0.2779	1.196
Zn	Zn	0.156	0.86	0.3017	1.208
Zn	Zn	0.2246	0.8583	0.2398	1.218
O 	O 	0.7612	0.6284	0.6786	-0.508
O 	O 	0.8204	0.6815	0.6489	-0.501
O 	O 	0.6338	0.3953	0.3007	-0.423
O 	O 	0.7118	0.4178	0.3102	-0.465
O 	O 	0.2603	0.9076	0.2757	-0.51
O 	O 	0.2114	0.9067	0.3185	-0.487
O 	O 	0.1186	0.879	0.2879	-0.525
O 	O 	0.2429	0.8184	0.2536	-0.476
C 	C 	0.72	0.6116	0.4665	-0
C 	C 	0.7119	0.5751	0.4464	-0.045
C 	C 	0.698	0.5651	0.402	0.004
C 	C 	0.6908	0.5932	0.3794	-0.039
C 	C 	0.6988	0.6301	0.3982	-0.017
C 	C 	0.7143	0.6393	0.4411	-0.038
C 	C 	0.6918	0.5266	0.3815	0.025
C 	C 	0.7126	0.5081	0.393	-0.055
C 	C 	0.7048	0.4724	0.372	-0.004
C 	C 	0.6803	0.4558	0.3392	-0.028
C 	C 	0.6578	0.4728	0.3297	-0.002
C 	C 	0.6648	0.5083	0.3507	-0.054
C 	C 	0.6908	0.66	0.3758	0.086
C 	C 	0.6648	0.6523	0.3435	-0.13
C 	C 	0.3183	0.9767	0.3201	0.143
C 	C 	0.2822	0.9597	0.3295	-0.271
C 	C 	0.2713	0.9728	0.3635	0.124
C 	C 	0.7079	0.6999	0.3863	-0.125
C 	C 	0.7341	0.6194	0.5142	0.042
C 	C 	0.7648	0.6596	0.5255	-0.081
C 	C 	0.7362	0.6015	0.5888	0.053
C 	C 	0.7679	0.6401	0.5996	-0.15
C 	C 	0.7246	0.5927	0.5469	-0.085
C 	C 	0.7832	0.6496	0.646	0.383
C 	C 	0.6753	0.4156	0.3174	0.177
C 	C 	0.2531	0.9246	0.3072	0.429
C 	C 	0.041	0.9282	0.2142	-0.069
C 	C 	0.0634	0.9063	0.2142	0.043
C 	C 	0.3066	0.7526	0.2646	-0.072
C 	C 	0.285	0.7726	0.2644	0.035
C 	C 	0.7796	0.6676	0.5709	0.061
Zn	Zn	0.2812	0.6593	0.7779	1.196
Zn	Zn	0.844	0.704	0.8017	1.208
Zn	Zn	0.7754	0.6337	0.7398	1.218
O 	O 	0.2388	0.8672	0.1786	-0.508
O 	O 	0.1796	0.8611	0.1489	-0.501
O 	O 	0.3662	0.7615	0.8007	-0.423
O 	O 	0.2882	0.706	0.8102	-0.465
O 	O 	0.7397	0.6473	0.7757	-0.51
O 	O 	0.7886	0.6953	0.8185	-0.487
O 	O 	0.8814	0.7604	0.7879	-0.525
O 	O 	0.7571	0.5755	0.7536	-0.476
C 	C 	0.28	0.8916	0.9665	-0
C 	C 	0.2881	0.8632	0.9464	-0.045
C 	C 	0.302	0.8671	0.902	0.003
C 	C 	0.3092	0.9024	0.8794	-0.039
C 	C 	0.3012	0.9313	0.8982	-0.017
C 	C 	0.2857	0.925	0.9411	-0.038
C 	C 	0.3082	0.8348	0.8815	0.025
C 	C 	0.2874	0.7955	0.893	-0.055
C 	C 	0.2952	0.7676	0.872	-0.004
C 	C 	0.3197	0.7755	0.8392	-0.028
C 	C 	0.3422	0.815	0.8297	-0.002
C 	C 	0.3352	0.8435	0.8507	-0.054
C 	C 	0.3092	0.9692	0.8758	0.086
C 	C 	0.3352	0.9875	0.8435	-0.13
C 	C 	0.6817	0.6584	0.8201	0.143
C 	C 	0.7178	0.6775	0.8295	-0.271
C 	C 	0.7287	0.7015	0.8635	0.124
C 	C 	0.2921	0.992	0.8863	-0.125
C 	C 	0.2659	0.8853	0.0142	0.042
C 	C 	0.2352	0.8948	0.0255	-0.081
C 	C 	0.2638	0.8653	0.0888	0.053
C 	C 	0.2321	0.8722	0.0996	-0.15
C 	C 	0.2754	0.8681	0.0469	-0.085
C 	C 	0.2168	0.8664	0.146	0.383
C 	C 	0.3247	0.7403	0.8174	0.177
C 	C 	0.7469	0.6715	0.8072	0.429
C 	C 	0.959	0.8872	0.7142	-0.069
C 	C 	0.9366	0.8429	0.7142	0.043
C 	C 	0.6934	0.446	0.7646	-0.072
C 	C 	0.715	0.4876	0.7644	0.035
C 	C 	0.2204	0.888	0.0709	0.061
Zn	Zn	0.86	0.704	0.6983	1.208
Zn	Zn	0.8583	0.6337	0.7602	1.218
O 	O 	0.1328	0.7612	0.3214	-0.508
O 	O 	0.1389	0.8204	0.3511	-0.501
O 	O 	0.2531	0.6677	0.727	-0.466
O 	O 	0.2884	0.6733	0.6653	-0.494
O 	O 	0.9076	0.6473	0.7243	-0.51
O 	O 	0.9067	0.6953	0.6815	-0.487
O 	O 	0.879	0.7604	0.7121	-0.525
O 	O 	0.8184	0.5755	0.7464	-0.476
C 	C 	0.1084	0.72	0.5335	-0.004
C 	C 	0.1368	0.7119	0.5536	-0.038
C 	C 	0.1329	0.698	0.598	-0.012
C 	C 	0.0976	0.6908	0.6206	-0.031
C 	C 	0.0687	0.6988	0.6018	-0.021
C 	C 	0.075	0.7143	0.5589	-0.034
C 	C 	0.1652	0.6918	0.6185	0.063
C 	C 	0.2045	0.7126	0.607	-0.097
C 	C 	0.2324	0.7048	0.628	0.061
C 	C 	0.2245	0.6803	0.6608	-0.141
C 	C 	0.185	0.6578	0.6703	0.062
C 	C 	0.1565	0.6648	0.6493	-0.097
C 	C 	0.0308	0.6908	0.6242	0.089
C 	C 	0.0125	0.6648	0.6565	-0.132
C 	C 	0.9767	0.6584	0.6799	0.144
C 	C 	0.9597	0.6775	0.6705	-0.272
C 	C 	0.9728	0.7015	0.6365	0.125
C 	C 	0.008	0.7079	0.6137	-0.126
C 	C 	0.1147	0.7341	0.4858	0.044
C 	C 	0.1052	0.7648	0.4745	-0.082
C 	C 	0.1347	0.7362	0.4112	0.054
C 	C 	0.1278	0.7679	0.4004	-0.151
C 	C 	0.1319	0.7246	0.4531	-0.086
C 	C 	0.1336	0.7832	0.354	0.383
C 	C 	0.2597	0.6753	0.6826	0.374
C 	C 	0.9246	0.6715	0.6928	0.429
C 	C 	0.9282	0.8872	0.7858	-0.069
C 	C 	0.9063	0.8429	0.7858	0.043
C 	C 	0.7526	0.446	0.7354	-0.072
C 	C 	0.7726	0.4876	0.7356	0.035
C 	C 	0.112	0.7796	0.4291	0.061
O 	O 	0.16645	0.83355	0.25	-0.961
C 	C 	0.02165	0.97835	0.25	0.013
C 	C 	0.04535	0.95465	0.25	0.024
C 	C 	0.0888	0.9112	0.25	-0.152
C 	C 	0.11045	0.88955	0.25	0.394
C 	C 	0.31195	0.68805	0.25	0.012
C 	C 	0.2878	0.7122	0.25	0.03
C 	C 	0.24505	0.75495	0.25	-0.113
C 	C 	0.22155	0.77845	0.25	0.351
O 	O 	0.83355	0.6671	0.75	-0.961
C 	C 	0.97835	0.9567	0.75	0.013
C 	C 	0.95465	0.9093	0.75	0.024
C 	C 	0.9112	0.8224	0.75	-0.152
C 	C 	0.88955	0.7791	0.75	0.394
C 	C 	0.68805	0.3761	0.75	0.012
C 	C 	0.7122	0.4244	0.75	0.03
C 	C 	0.75495	0.5099	0.75	-0.113
C 	C 	0.77845	0.5569	0.75	0.351
C 	C 	0.9786	0.9572	0.25	-0.057
C 	C 	0.0214	0.9786	0.75	-0.057
H 	H 	0.83478	0.55112	0.0343	0.036
H 	H 	0.90815	0.58599	0.15593	0.033
H 	H 	0.94854	0.67099	0.04466	0.033
H 	H 	0.78486	0.52192	0.07955	0.049
H 	H 	0.73381	0.45471	0.11638	0.021
H 	H 	0.82589	0.45795	0.19634	0.021
H 	H 	0.87708	0.52167	0.1609	0.048
H 	H 	0.97477	0.61897	0.16864	0.055
H 	H 	0.03631	0.67105	0.20817	0.007
H 	H 	0.04455	0.76244	0.12467	0.009
H 	H 	0.9831	0.71284	0.08388	0.052
H 	H 	0.90759	0.6852	0.0008	0.045
H 	H 	0.85718	0.57711	0.88408	0.026
H 	H 	0.8536	0.5579	0.95971	0.046
H 	H 	0.07566	0.98049	0.3148	0.043
H 	H 	0.11478	0.93983	0.31498	0.025
H 	H 	0.2313	0.65976	0.22329	0.042
H 	H 	0.19388	0.69991	0.22326	0.033
H 	H 	0.89736	0.70061	0.91824	0.025
H 	H 	0.71634	0.55112	0.4657	0.037
H 	H 	0.67784	0.58599	0.34407	0.035
H 	H 	0.72245	0.67099	0.45534	0.034
H 	H 	0.73706	0.52192	0.42045	0.039
H 	H 	0.7209	0.45471	0.38362	0.034
H 	H 	0.63206	0.45795	0.30366	0.045
H 	H 	0.64459	0.52167	0.3391	0.038
H 	H 	0.6442	0.61897	0.33136	0.054
H 	H 	0.32895	0.96369	0.29183	0.007
H 	H 	0.23756	0.95545	0.37533	0.009
H 	H 	0.72974	0.71284	0.41612	0.052
H 	H 	0.77761	0.6852	0.4992	0.044
H 	H 	0.71993	0.57711	0.61592	0.026
H 	H 	0.7043	0.5579	0.54029	0.045
H 	H 	0.01951	0.92434	0.1852	0.043
H 	H 	0.06017	0.88522	0.18502	0.025
H 	H 	0.34024	0.7687	0.27671	0.043
H 	H 	0.30009	0.80612	0.27674	0.033
H 	H 	0.80325	0.70061	0.58176	0.025
H 	H 	0.28366	0.83478	0.9657	0.037
H 	H 	0.32216	0.90815	0.84407	0.035
H 	H 	0.27755	0.94854	0.95534	0.034
H 	H 	0.26294	0.78486	0.92045	0.039
H 	H 	0.2791	0.73381	0.88362	0.034
H 	H 	0.36794	0.82589	0.80366	0.045
H 	H 	0.35541	0.87708	0.8391	0.038
H 	H 	0.3558	0.97477	0.83136	0.054
H 	H 	0.67105	0.63474	0.79183	0.007
H 	H 	0.76244	0.71789	0.87533	0.009
H 	H 	0.27026	0.9831	0.91612	0.052
H 	H 	0.22239	0.90759	0.9992	0.044
H 	H 	0.28007	0.85718	0.11592	0.026
H 	H 	0.2957	0.8536	0.04029	0.045
H 	H 	0.98049	0.90483	0.6852	0.043
H 	H 	0.93983	0.82505	0.68502	0.025
H 	H 	0.65976	0.42846	0.77671	0.043
H 	H 	0.69991	0.50603	0.77674	0.033
H 	H 	0.19675	0.89736	0.08176	0.025
H 	H 	0.16522	0.71634	0.5343	0.036
H 	H 	0.09185	0.67784	0.65593	0.033
H 	H 	0.05146	0.72245	0.54466	0.033
H 	H 	0.21514	0.73706	0.57955	0.049
H 	H 	0.26619	0.7209	0.61638	0.021
H 	H 	0.17411	0.63206	0.69634	0.021
H 	H 	0.12292	0.64459	0.6609	0.048
H 	H 	0.02523	0.6442	0.66864	0.055
H 	H 	0.96369	0.63474	0.70817	0.007
H 	H 	0.95545	0.71789	0.62467	0.009
H 	H 	0.0169	0.72974	0.58388	0.052
H 	H 	0.09241	0.77761	0.5008	0.045
H 	H 	0.14282	0.71993	0.38408	0.026
H 	H 	0.1464	0.7043	0.45971	0.046
H 	H 	0.92434	0.90483	0.8148	0.043
H 	H 	0.88522	0.82505	0.81498	0.025
H 	H 	0.7687	0.42846	0.72329	0.042
H 	H 	0.80612	0.50603	0.72326	0.033
H 	H 	0.10264	0.80325	0.41824	0.025
H 	H 	0.96053	0.92169	0.25	0.043
H 	H 	0.03884	0.96053	0.75	0.043
H 	H 	0.37235	0.7459	0.25	0.038
H 	H 	0.7459	0.37355	0.75	0.038
_end
